/*--------------------------------*- C++ -*----------------------------------*\
  =========                 |
  \\      /  F ield         | OpenFOAM: The Open Source CFD Toolbox
   \\    /   O peration     | Website:  https://openfoam.org
    \\  /    A nd           | Version:  12
     \\/     M anipulation  |
\*---------------------------------------------------------------------------*/
FoamFile
{
    format      ascii;
    class       extendedFeatureEdgeMesh;
    location    "constant/extendedFeatureEdgeMesh";
    object      combined.extendedFeatureEdgeMesh;
}
// * * * * * * * * * * * * * * * * * * * * * * * * * * * * * * * * * * * * * //

// points

414
(
(-0.057 0.06 0.27115)
(-0.057 0.0589062 0.271123)
(-0.057 0.0576763 0.271028)
(-0.057 0.0562404 0.270829)
(-0.057 0.0551671 0.270616)
(-0.057 0.0541056 0.270351)
(-0.057 0.0530584 0.270034)
(-0.057 0.051964 0.269641)
(-0.057 0.0508089 0.269153)
(-0.057 0.0497508 0.268636)
(-0.057 0.0487937 0.268106)
(-0.057 0.047728 0.26744)
(-0.057 0.0468048 0.266791)
(-0.057 0.0452763 0.265548)
(-0.057 0.0444436 0.264768)
(-0.057 0.0436839 0.26398)
(-0.057 0.0429641 0.263156)
(-0.057 0.0421783 0.262153)
(-0.057 0.0415243 0.261218)
(-0.057 0.0408806 0.260184)
(-0.057 0.0403498 0.259222)
(-0.057 0.0398557 0.25821)
(-0.057 0.0393398 0.256986)
(-0.057 0.0389706 0.255956)
(-0.057 0.0385256 0.254429)
(-0.057 0.0382631 0.253258)
(-0.057 0.0380793 0.252179)
(-0.057 0.0379418 0.251015)
(-0.057 0.0378648 0.249809)
(-0.057 0.0378518 0.248715)
(-0.057 0.0378929 0.247622)
(-0.057 0.0380052 0.246383)
(-0.057 0.0381619 0.245296)
(-0.057 0.0383714 0.244222)
(-0.057 0.0386448 0.24312)
(-0.057 0.038977 0.242025)
(-0.057 0.0393827 0.240904)
(-0.057 0.0398551 0.239791)
(-0.057 0.0403344 0.238807)
(-0.057 0.0408814 0.237815)
(-0.057 0.041457 0.236885)
(-0.057 0.0420779 0.235984)
(-0.057 0.0428861 0.234938)
(-0.057 0.0436014 0.23411)
(-0.057 0.0444002 0.233275)
(-0.057 0.0452854 0.232444)
(-0.057 0.0463285 0.231573)
(-0.057 0.0473905 0.230789)
(-0.057 0.0483849 0.23014)
(-0.057 0.0494662 0.229515)
(-0.057 0.0504412 0.229019)
(-0.057 0.0516302 0.228492)
(-0.057 0.05371 0.227762)
(-0.057 0.0551671 0.227384)
(-0.057 0.0562404 0.227171)
(-0.057 0.0575933 0.226981)
(-0.057 0.0589062 0.226877)
(-0.057 0.06 0.22685)
(-0.057 0.0612749 0.226887)
(-0.057 0.0636711 0.227156)
(-0.057 0.0673091 0.228091)
(-0.057 0.0704522 0.229471)
(-0.057 0.0731621 0.231185)
(-0.057 0.0757803 0.233456)
(-0.057 0.077859 0.235897)
(-0.057 0.0795635 0.238613)
(-0.057 0.0808581 0.241546)
(-0.057 0.0817157 0.244635)
(-0.057 0.0821324 0.248118)
(-0.057 0.0819481 0.251984)
(-0.057 0.0812874 0.255121)
(-0.057 0.0799747 0.258572)
(-0.057 0.0779819 0.261934)
(-0.057 0.0759148 0.264406)
(-0.057 0.0733758 0.266655)
(-0.057 0.0704476 0.268531)
(-0.057 0.0673518 0.269894)
(-0.057 0.0639504 0.270795)
(-0.057 0.0614075 0.271105)
(-0.133 -0.17765 -0.227)
(-0.133 -0.177623 -0.228085)
(-0.133 -0.177459 -0.2299)
(-0.133 -0.176991 -0.232364)
(-0.133 -0.176681 -0.233479)
(-0.133 -0.176119 -0.235092)
(-0.133 -0.175643 -0.236213)
(-0.133 -0.174823 -0.237829)
(-0.133 -0.174007 -0.23917)
(-0.133 -0.173208 -0.240305)
(-0.133 -0.172466 -0.24124)
(-0.133 -0.171512 -0.242305)
(-0.133 -0.170654 -0.243155)
(-0.133 -0.168779 -0.244728)
(-0.133 -0.166977 -0.245945)
(-0.133 -0.166068 -0.246466)
(-0.133 -0.164656 -0.247169)
(-0.133 -0.163673 -0.247587)
(-0.133 -0.162354 -0.248063)
(-0.133 -0.161058 -0.248441)
(-0.133 -0.159846 -0.24872)
(-0.133 -0.158297 -0.248973)
(-0.133 -0.156663 -0.249119)
(-0.133 -0.155341 -0.249149)
(-0.133 -0.154273 -0.249116)
(-0.133 -0.15263 -0.248963)
(-0.133 -0.151044 -0.248697)
(-0.133 -0.149794 -0.248402)
(-0.133 -0.148519 -0.248021)
(-0.133 -0.147182 -0.247529)
(-0.133 -0.146219 -0.247112)
(-0.133 -0.144824 -0.246407)
(-0.133 -0.14392 -0.245882)
(-0.133 -0.14284 -0.245175)
(-0.133 -0.141879 -0.244467)
(-0.133 -0.140723 -0.243501)
(-0.133 -0.139684 -0.242508)
(-0.133 -0.138674 -0.241405)
(-0.133 -0.136956 -0.239113)
(-0.133 -0.136122 -0.23773)
(-0.133 -0.135446 -0.236406)
(-0.133 -0.13494 -0.23524)
(-0.133 -0.134357 -0.233603)
(-0.133 -0.133988 -0.232276)
(-0.133 -0.1337 -0.230923)
(-0.133 -0.133502 -0.229591)
(-0.133 -0.133381 -0.228167)
(-0.133 -0.13335 -0.227)
(-0.133 -0.133403 -0.225472)
(-0.133 -0.133738 -0.222871)
(-0.133 -0.134064 -0.221423)
(-0.133 -0.134455 -0.220091)
(-0.133 -0.134985 -0.218647)
(-0.133 -0.135412 -0.217667)
(-0.133 -0.136156 -0.216209)
(-0.133 -0.136841 -0.215063)
(-0.133 -0.137791 -0.213696)
(-0.133 -0.138516 -0.212782)
(-0.133 -0.13948 -0.211704)
(-0.133 -0.140247 -0.210938)
(-0.133 -0.141916 -0.209505)
(-0.133 -0.143926 -0.208115)
(-0.133 -0.144846 -0.207581)
(-0.133 -0.146179 -0.206907)
(-0.133 -0.14716 -0.20648)
(-0.133 -0.148382 -0.206025)
(-0.133 -0.149704 -0.205622)
(-0.133 -0.150748 -0.205366)
(-0.133 -0.152521 -0.205051)
(-0.133 -0.153641 -0.204928)
(-0.133 -0.154874 -0.204859)
(-0.133 -0.155909 -0.204854)
(-0.133 -0.157297 -0.204923)
(-0.133 -0.158482 -0.205052)
(-0.133 -0.16014 -0.205341)
(-0.133 -0.161312 -0.205626)
(-0.133 -0.16256 -0.206005)
(-0.133 -0.163869 -0.206492)
(-0.133 -0.164859 -0.206924)
(-0.133 -0.166201 -0.207606)
(-0.133 -0.16711 -0.208137)
(-0.133 -0.168171 -0.208833)
(-0.133 -0.169114 -0.209527)
(-0.133 -0.1701 -0.210343)
(-0.133 -0.171256 -0.211432)
(-0.133 -0.17216 -0.212404)
(-0.133 -0.173928 -0.21471)
(-0.133 -0.174823 -0.216172)
(-0.133 -0.175469 -0.217416)
(-0.133 -0.176016 -0.218651)
(-0.133 -0.176553 -0.220117)
(-0.133 -0.176927 -0.221385)
(-0.133 -0.17728 -0.222969)
(-0.133 -0.177479 -0.224252)
(-0.133 -0.177592 -0.225394)
(-0.09 -5.62657e-33 0.291)
(-0.0903593 -0.00846923 0.291)
(-0.0914346 -0.0168776 0.291)
(-0.0932181 -0.0251647 0.291)
(-0.0956971 -0.033271 0.291)
(-0.0988537 -0.0411382 0.291)
(-0.102665 -0.0487098 0.291)
(-0.107171 -0.0560307 0.291)
(-0.112214 -0.0628443 0.291)
(-0.117816 -0.0692064 0.291)
(-0.123937 -0.0750711 0.291)
(-0.130532 -0.0803965 0.291)
(-0.137555 -0.0851441 0.291)
(-0.144954 -0.0892798 0.291)
(-0.152678 -0.0927741 0.291)
(-0.160669 -0.0956017 0.291)
(-0.168871 -0.0977423 0.291)
(-0.177225 -0.0991806 0.291)
(-0.185671 -0.0999062 0.291)
(-0.194147 -0.0999139 0.291)
(-0.202595 -0.0992037 0.291)
(-0.210951 -0.0977806 0.291)
(-0.219157 -0.0956549 0.291)
(-0.227154 -0.0928419 0.291)
(-0.234883 -0.0893617 0.291)
(-0.24229 -0.0852394 0.291)
(-0.249321 -0.0805046 0.291)
(-0.255926 -0.0751913 0.291)
(-0.262058 -0.0693376 0.291)
(-0.267671 -0.0629858 0.291)
(-0.272726 -0.0561814 0.291)
(-0.277187 -0.0489732 0.291)
(-0.281022 -0.0414132 0.291)
(-0.284202 -0.0335555 0.291)
(-0.28671 -0.0254411 0.291)
(-0.288565 -0.0168776 0.291)
(-0.289641 -0.00846923 0.291)
(-0.29 1.22465e-17 0.291)
(-0.28964 0.00847246 0.291)
(-0.288564 0.016884 0.291)
(-0.286779 0.0251741 0.291)
(-0.284299 0.0332832 0.291)
(-0.28114 0.0411529 0.291)
(-0.277325 0.0487267 0.291)
(-0.272883 0.0559501 0.291)
(-0.267845 0.0627712 0.291)
(-0.262246 0.0691409 0.291)
(-0.256129 0.0750133 0.291)
(-0.249536 0.0803463 0.291)
(-0.242514 0.0851015 0.291)
(-0.235115 0.0892448 0.291)
(-0.227392 0.0927463 0.291)
(-0.219399 0.0955808 0.291)
(-0.211195 0.0977279 0.291)
(-0.202839 0.0991723 0.291)
(-0.194391 0.0999036 0.291)
(-0.185911 0.0999164 0.291)
(-0.17746 0.0992106 0.291)
(-0.1691 0.0977915 0.291)
(-0.160889 0.0956691 0.291)
(-0.152889 0.0928587 0.291)
(-0.145155 0.0893806 0.291)
(-0.137743 0.0852597 0.291)
(-0.130707 0.0805257 0.291)
(-0.124098 0.0752126 0.291)
(-0.117963 0.0693587 0.291)
(-0.112345 0.0630059 0.291)
(-0.107286 0.0562001 0.291)
(-0.102822 0.0489902 0.291)
(-0.098985 0.0414279 0.291)
(-0.0958023 0.0335678 0.291)
(-0.093297 0.0254662 0.291)
(-0.0914356 0.016884 0.291)
(-0.0903596 0.00847246 0.291)
(-0.19 -0.1 -0.20485)
(-0.191151 -0.0999934 -0.20488)
(-0.192447 -0.0999701 -0.204985)
(-0.19368 -0.0999323 -0.205158)
(-0.194818 -0.0998838 -0.20538)
(-0.196023 -0.0998185 -0.205684)
(-0.197552 -0.0997144 -0.206177)
(-0.199841 -0.0995146 -0.207156)
(-0.201937 -0.0992849 -0.208342)
(-0.20288 -0.0991671 -0.20898)
(-0.203751 -0.0990501 -0.209635)
(-0.20459 -0.0989299 -0.210334)
(-0.205409 -0.0988057 -0.211088)
(-0.207912 -0.0983828 -0.213969)
(-0.208636 -0.0982481 -0.215029)
(-0.209202 -0.0981391 -0.215959)
(-0.209771 -0.0980261 -0.217013)
(-0.210625 -0.0978498 -0.218925)
(-0.211101 -0.0977484 -0.220264)
(-0.211407 -0.0976817 -0.221313)
(-0.211662 -0.0976256 -0.222377)
(-0.211888 -0.0975752 -0.223603)
(-0.212108 -0.0975256 -0.225635)
(-0.212134 -0.0975196 -0.227838)
(-0.211944 -0.0975626 -0.230015)
(-0.211536 -0.0976535 -0.232179)
(-0.210875 -0.097797 -0.234408)
(-0.210034 -0.0979727 -0.236449)
(-0.209013 -0.098176 -0.238364)
(-0.207919 -0.0983815 -0.24002)
(-0.20717 -0.0985149 -0.240993)
(-0.206463 -0.0986355 -0.241818)
(-0.205714 -0.0987577 -0.242611)
(-0.204751 -0.0989061 -0.243524)
(-0.203878 -0.0990324 -0.244264)
(-0.202876 -0.0991676 -0.245023)
(-0.201684 -0.0993151 -0.245818)
(-0.200588 -0.0994379 -0.246456)
(-0.199615 -0.0995367 -0.246955)
(-0.198622 -0.0996276 -0.247403)
(-0.197453 -0.0997219 -0.247859)
(-0.195431 -0.0998524 -0.248474)
(-0.194138 -0.0999143 -0.24876)
(-0.193059 -0.0999532 -0.248938)
(-0.206461 -0.0986359 -0.212178)
(-0.191967 -0.0999807 -0.249062)
(-0.19 -0.1 -0.24915)
(-0.187607 -0.0999714 -0.204979)
(-0.185395 -0.0998939 -0.205334)
(-0.183207 -0.099769 -0.205917)
(-0.181121 -0.0996051 -0.206707)
(-0.178811 -0.0993721 -0.207883)
(-0.176876 -0.099135 -0.209157)
(-0.175349 -0.0989209 -0.210388)
(-0.174512 -0.0987933 -0.211165)
(-0.173712 -0.0986645 -0.21199)
(-0.17244 -0.0984461 -0.2135)
(-0.171191 -0.0982152 -0.215302)
(-0.170104 -0.0980009 -0.217264)
(-0.169196 -0.097812 -0.219397)
(-0.168529 -0.0976677 -0.221559)
(-0.168093 -0.0975709 -0.223728)
(-0.167863 -0.0975191 -0.226232)
(-0.167856 -0.0975174 -0.227521)
(-0.167912 -0.0975301 -0.228655)
(-0.168031 -0.0975569 -0.229822)
(-0.168333 -0.0976245 -0.231599)
(-0.168687 -0.0977025 -0.233033)
(-0.169026 -0.0977757 -0.234122)
(-0.169406 -0.0978564 -0.235155)
(-0.169861 -0.0979512 -0.236223)
(-0.170844 -0.0981481 -0.238121)
(-0.172049 -0.0983756 -0.239976)
(-0.172966 -0.0985385 -0.241158)
(-0.173689 -0.0986607 -0.241985)
(-0.174448 -0.0987833 -0.242772)
(-0.175389 -0.0989269 -0.243648)
(-0.176268 -0.0990527 -0.24438)
(-0.177353 -0.099197 -0.245184)
(-0.178835 -0.0993747 -0.24613)
(-0.180772 -0.0995733 -0.247136)
(-0.182123 -0.0996893 -0.247702)
(-0.183312 -0.0997761 -0.248116)
(-0.184477 -0.0998474 -0.248451)
(-0.185797 -0.0999116 -0.248747)
(-0.187579 -0.0999707 -0.249018)
(-0.11 0.06 0.27115)
(-0.111462 0.061901 0.271068)
(-0.113081 0.0639017 0.270804)
(-0.115153 0.0663165 0.270231)
(-0.117959 0.0693543 0.269078)
(-0.120403 0.0718069 0.267741)
(-0.123191 0.0744082 0.265824)
(-0.125212 0.0761739 0.264134)
(-0.126447 0.0772074 0.262947)
(-0.12725 0.0778617 0.262099)
(-0.12803 0.0784838 0.261205)
(-0.128811 0.0790946 0.260226)
(-0.129965 0.0799741 0.258574)
(-0.130939 0.0806955 0.256894)
(-0.131497 0.081101 0.255736)
(-0.13198 0.0814474 0.254535)
(-0.132436 0.0817702 0.253085)
(-0.132853 0.0820626 0.250966)
(-0.132976 0.0821478 0.249312)
(-0.132945 0.0821264 0.247977)
(-0.132799 0.0820244 0.246645)
(-0.132537 0.0818414 0.245315)
(-0.131888 0.0813817 0.243217)
(-0.13083 0.080616 0.2409)
(-0.129533 0.079648 0.238773)
(-0.12807 0.0785156 0.236843)
(-0.126486 0.0772398 0.235093)
(-0.124339 0.0754235 0.233102)
(-0.122615 0.0738871 0.231744)
(-0.120863 0.0722501 0.230546)
(-0.118965 0.0703844 0.229435)
(-0.1167 0.0680233 0.228354)
(-0.114959 0.0660971 0.227706)
(-0.11324 0.0640925 0.227231)
(-0.111559 0.0620247 0.226943)
(-0.11 0.06 0.22685)
(-0.108506 0.0579543 0.226945)
(-0.106349 0.0547955 0.22747)
(-0.105077 0.0528029 0.228052)
(-0.104484 0.0518369 0.228409)
(-0.103911 0.0508793 0.228815)
(-0.103325 0.0498748 0.2293)
(-0.102614 0.0486186 0.229998)
(-0.101559 0.046671 0.231309)
(-0.100829 0.045261 0.232466)
(-0.100419 0.0444439 0.233232)
(-0.100037 0.0436643 0.234041)
(-0.0994904 0.0425208 0.235395)
(-0.0989188 0.0412822 0.237156)
(-0.0986311 0.0406413 0.238236)
(-0.0983929 0.0401015 0.23927)
(-0.098147 0.0395352 0.240525)
(-0.0978085 0.0387393 0.242786)
(-0.0976396 0.0383349 0.244391)
(-0.0975505 0.0381195 0.245555)
(-0.0974874 0.0379659 0.246737)
(-0.0974492 0.0378727 0.247997)
(-0.0974404 0.0378512 0.249234)
(-0.0974594 0.0378977 0.250453)
(-0.0975078 0.0380157 0.251704)
(-0.0975805 0.038192 0.252877)
(-0.097676 0.0384224 0.254003)
(-0.0977975 0.0387131 0.255124)
(-0.0979707 0.0391233 0.256402)
(-0.0981787 0.0396088 0.25765)
(-0.0983898 0.0400947 0.258716)
(-0.0986269 0.040632 0.259747)
(-0.0989437 0.0413372 0.26093)
(-0.0995638 0.0426767 0.262803)
(-0.100015 0.0436208 0.263911)
(-0.100385 0.0443759 0.264701)
(-0.100805 0.0452124 0.265491)
(-0.101629 0.0468041 0.266791)
(-0.102512 0.0484333 0.26789)
(-0.103019 0.0493393 0.268416)
(-0.103561 0.0502827 0.268905)
(-0.104455 0.0517887 0.269572)
(-0.105778 0.0539129 0.270297)
(-0.107254 0.0561528 0.270813)
(-0.108604 0.0580915 0.271068)
)

// edges

414
(
(0 1)
(2 3)
(4 5)
(6 7)
(8 9)
(10 11)
(12 13)
(14 15)
(16 17)
(18 19)
(20 21)
(22 23)
(24 25)
(26 27)
(28 29)
(30 31)
(32 33)
(34 35)
(36 37)
(38 39)
(40 41)
(42 43)
(44 45)
(46 47)
(48 49)
(50 51)
(52 53)
(54 55)
(56 57)
(58 59)
(60 61)
(62 63)
(64 65)
(66 67)
(68 69)
(70 71)
(72 73)
(74 75)
(76 77)
(78 0)
(1 2)
(3 4)
(5 6)
(7 8)
(9 10)
(11 12)
(13 14)
(15 16)
(17 18)
(19 20)
(21 22)
(23 24)
(25 26)
(27 28)
(29 30)
(31 32)
(33 34)
(35 36)
(37 38)
(39 40)
(41 42)
(43 44)
(45 46)
(47 48)
(49 50)
(51 52)
(53 54)
(55 56)
(57 58)
(59 60)
(61 62)
(63 64)
(65 66)
(67 68)
(69 70)
(71 72)
(73 74)
(75 76)
(77 78)
(79 80)
(81 82)
(83 84)
(85 86)
(87 88)
(89 90)
(91 92)
(92 93)
(94 95)
(96 97)
(98 99)
(100 101)
(102 103)
(104 105)
(106 107)
(108 109)
(110 111)
(112 113)
(114 115)
(116 117)
(118 119)
(120 121)
(122 123)
(124 125)
(126 127)
(128 129)
(130 131)
(132 133)
(134 135)
(136 137)
(138 139)
(140 141)
(142 143)
(144 145)
(146 147)
(148 149)
(150 151)
(152 153)
(154 155)
(156 157)
(158 159)
(160 161)
(162 163)
(164 165)
(166 167)
(168 169)
(170 171)
(172 173)
(173 79)
(80 81)
(82 83)
(84 85)
(86 87)
(88 89)
(90 91)
(93 94)
(95 96)
(97 98)
(99 100)
(101 102)
(103 104)
(105 106)
(107 108)
(109 110)
(111 112)
(113 114)
(115 116)
(117 118)
(119 120)
(121 122)
(123 124)
(125 126)
(127 128)
(129 130)
(131 132)
(133 134)
(135 136)
(137 138)
(139 140)
(141 142)
(143 144)
(145 146)
(147 148)
(149 150)
(151 152)
(153 154)
(155 156)
(157 158)
(159 160)
(161 162)
(163 164)
(165 166)
(167 168)
(169 170)
(171 172)
(174 175)
(175 176)
(177 178)
(179 180)
(181 182)
(183 184)
(185 186)
(187 188)
(189 190)
(191 192)
(193 194)
(195 196)
(197 198)
(199 200)
(201 202)
(203 204)
(205 206)
(207 208)
(209 210)
(210 211)
(176 177)
(178 179)
(180 181)
(182 183)
(184 185)
(186 187)
(188 189)
(190 191)
(192 193)
(194 195)
(196 197)
(198 199)
(200 201)
(202 203)
(204 205)
(206 207)
(208 209)
(211 212)
(212 213)
(214 215)
(216 217)
(218 219)
(220 221)
(222 223)
(224 225)
(226 227)
(228 229)
(230 231)
(232 233)
(234 235)
(236 237)
(238 239)
(240 241)
(242 243)
(244 245)
(246 247)
(247 174)
(213 214)
(215 216)
(217 218)
(219 220)
(221 222)
(223 224)
(225 226)
(227 228)
(229 230)
(231 232)
(233 234)
(235 236)
(237 238)
(239 240)
(241 242)
(243 244)
(245 246)
(248 249)
(250 251)
(251 252)
(252 253)
(254 255)
(255 256)
(257 258)
(259 260)
(261 262)
(263 264)
(265 266)
(267 268)
(269 270)
(270 271)
(271 272)
(272 273)
(273 274)
(274 275)
(275 276)
(276 277)
(277 278)
(279 280)
(280 281)
(281 282)
(282 283)
(283 284)
(284 285)
(286 287)
(287 288)
(289 290)
(290 291)
(249 250)
(256 257)
(258 259)
(260 292)
(262 263)
(278 279)
(285 286)
(293 294)
(291 293)
(264 265)
(253 254)
(266 267)
(268 269)
(288 289)
(292 261)
(248 295)
(295 296)
(296 297)
(297 298)
(298 299)
(299 300)
(301 302)
(303 304)
(305 306)
(306 307)
(307 308)
(308 309)
(309 310)
(311 312)
(313 314)
(314 315)
(316 317)
(318 319)
(319 320)
(321 322)
(323 324)
(325 326)
(327 328)
(329 330)
(331 332)
(333 294)
(300 301)
(302 303)
(304 305)
(310 311)
(312 313)
(315 316)
(317 318)
(320 321)
(322 323)
(324 325)
(326 327)
(328 329)
(330 331)
(332 333)
(334 335)
(336 337)
(337 338)
(339 340)
(341 342)
(343 344)
(345 346)
(346 347)
(348 349)
(350 351)
(351 352)
(353 354)
(355 356)
(356 357)
(357 358)
(358 359)
(360 361)
(362 363)
(364 365)
(366 367)
(368 369)
(370 371)
(371 372)
(373 374)
(375 376)
(376 377)
(377 378)
(379 380)
(381 382)
(383 384)
(385 386)
(386 387)
(388 389)
(390 391)
(392 393)
(394 395)
(396 397)
(397 398)
(399 400)
(401 402)
(402 403)
(404 405)
(406 407)
(408 409)
(410 411)
(411 412)
(413 334)
(335 336)
(338 339)
(340 341)
(342 343)
(344 345)
(347 348)
(349 350)
(352 353)
(354 355)
(359 360)
(361 362)
(363 364)
(365 366)
(367 368)
(369 370)
(372 373)
(374 375)
(378 379)
(380 381)
(382 383)
(384 385)
(387 388)
(389 390)
(391 392)
(393 394)
(395 396)
(398 399)
(400 401)
(403 404)
(405 406)
(407 408)
(409 410)
(412 413)
)

// concaveStart mixedStart nonFeatureStart
0 0 0
// internalStart flatStart openStart multipleStart
248 414 414 414
// normals

828
(
(1 0 0)
(0 -0.0246786 0.999695)
(1 0 0)
(0.0106086 -0.137406 0.990458)
(1 0 0)
(0.00654909 -0.242205 0.970203)
(1 0 0)
(0.00706431 -0.338194 0.94105)
(1 0 0)
(0.00941945 -0.438963 0.898456)
(1 0 0)
(0.00608175 -0.530151 0.847882)
(1 0 0)
(0.0163908 -0.630767 0.775799)
(1 0 0)
(0.00559329 -0.719714 0.694248)
(1 0 0)
(0.00820534 -0.787164 0.616689)
(1 0 0)
(0.00773462 -0.848928 0.528452)
(1 0 0)
(0.00706358 -0.898576 0.438762)
(1 0 0)
(0.00617934 -0.94134 0.337404)
(1 0 0)
(0.00556393 -0.975767 0.21874)
(1 0 0)
(0.00705405 -0.993074 0.117276)
(1 0 0)
(0.00696024 -0.999906 0.0118456)
(1 0 0)
(0.00808872 -0.995889 -0.0902156)
(1 0 0)
(0.00644381 -0.981472 -0.191496)
(1 0 0)
(0.00658003 -0.956914 -0.290296)
(1 0 0)
(0.00760729 -0.920462 -0.390758)
(1 0 0)
(0.00764801 -0.875748 -0.482709)
(1 -0 0)
(0.00619556 -0.823379 -0.567457)
(1 -0 0)
(0.00546912 -0.756692 -0.653748)
(1 -0 0)
(0.00721155 -0.684553 -0.728928)
(1 -0 0)
(0.0090706 -0.593486 -0.804793)
(1 -0 0)
(0.00801308 -0.500127 -0.865915)
(1 -0 0)
(0.00462936 -0.404898 -0.91435)
(1 -0 0)
(0.00740384 -0.25122 -0.967902)
(1 -0 0)
(0.00763947 -0.139287 -0.990223)
(1 -0 0)
(0 -0.0246786 -0.999695)
(1 0 0)
(0.0191301 0.111784 -0.993548)
(1 0 -0)
(0.0192568 0.402062 -0.91541)
(1 0 -0)
(0.0188629 0.655206 -0.755214)
(1 0 -0)
(0.0186936 0.846823 -0.531547)
(1 0 -0)
(0.0162072 0.963434 -0.267454)
(1 0 0)
(0.0229017 0.998603 0.0476136)
(1 0 0)
(0.0202314 0.934485 0.355428)
(1 0 0)
(0.0152556 0.767107 0.641338)
(1 0 0)
(0.0151392 0.539372 0.841931)
(1 0 0)
(0.0404735 0.255741 0.965898)
(1 0 0)
(0 0.0318092 0.999494)
(1 0 0)
(0.00667218 -0.0771592 0.996996)
(1 0 0)
(0.00643119 -0.194047 0.980971)
(1 0 0)
(0.00607402 -0.28982 0.957062)
(1 0 0)
(0.00855816 -0.389022 0.921189)
(1 0 0)
(0.00567431 -0.484485 0.874781)
(1 0 0)
(0.00460915 -0.575083 0.818082)
(1 0 0)
(0.00544728 -0.683719 0.729725)
(1 0 0)
(0.00753305 -0.753051 0.657919)
(1 0 0)
(0.00671438 -0.819604 0.57289)
(1 0 0)
(0.00630047 -0.875416 0.48333)
(1 0 0)
(0.00970186 -0.921462 0.388347)
(1 0 0)
(0.011867 -0.960008 0.279722)
(1 0 0)
(0.00696253 -0.985776 0.167919)
(1 0 0)
(0.00809565 -0.997932 0.063765)
(1 0 0)
(0.00667356 -0.999272 -0.0375493)
(1 0 0)
(0.0067549 -0.989739 -0.142724)
(1 0 0)
(0.0064007 -0.970591 -0.240651)
(1 0 0)
(0.00725624 -0.940278 -0.340329)
(1 0 0)
(0.00656005 -0.898908 -0.438089)
(1 0 0)
(0.00691412 -0.850379 -0.526124)
(1 0 0)
(0.00816045 -0.791202 -0.6115)
(1 -0 0)
(0.00771228 -0.722544 -0.691282)
(1 -0 0)
(0.00948262 -0.641048 -0.767442)
(1 -0 0)
(0.00728272 -0.547032 -0.83708)
(1 -0 0)
(0.00543739 -0.4537 -0.891138)
(1 -0 0)
(0.0146348 -0.331271 -0.943422)
(1 -0 0)
(0.00558175 -0.194034 -0.980979)
(1 -0 0)
(0.00868799 -0.0790369 -0.996834)
(1 0 0)
(0 0.0287758 -0.999586)
(1 0 0)
(0.0351894 0.248614 -0.967963)
(1 0 -0)
(0.0161555 0.534393 -0.845081)
(1 0 -0)
(0.0169792 0.76125 -0.648236)
(1 0 -0)
(0.0185341 0.914695 -0.403721)
(1 0 -0)
(0.0188319 0.992742 -0.118779)
(1 0 0)
(0.0154903 0.978421 0.20604)
(1 0 0)
(0.0228961 0.859937 0.509886)
(1 0 0)
(0.0168405 0.663042 0.748393)
(1 0 0)
(0.00943671 0.402936 0.915179)
(1 0 0)
(0.0163978 0.121111 0.992504)
(1 0 0)
(-0.00628542 -0.99968 -0.0245161)
(1 0 0)
(0.0183878 -0.98222 -0.18683)
(1 0 0)
(0.00230582 -0.94427 -0.329164)
(1 0 0)
(0.00123463 -0.89164 -0.452744)
(1 -0 0)
(-0.00205352 -0.817863 -0.575409)
(1 -0 0)
(0.0045679 -0.744781 -0.667293)
(1 -0 0)
(0.0146337 -0.642724 -0.765958)
(1 -0 0)
(0.00773267 -0.559507 -0.82879)
(1 -0 0)
(0.00484675 -0.445503 -0.895267)
(1 -0 0)
(0.00571108 -0.339355 -0.940641)
(1 -0 0)
(0.00261417 -0.22367 -0.974661)
(1 -0 0)
(0.0093412 -0.0894689 -0.995946)
(1 0 0)
(0.00489179 0.0312631 -0.999499)
(1 0 0)
(0.0113518 0.165461 -0.986151)
(1 0 0)
(0.010992 0.286528 -0.958009)
(1 0 -0)
(0.0101471 0.397405 -0.917587)
(1 0 -0)
(0.0119542 0.502513 -0.864487)
(1 0 -0)
(0.0152221 0.593371 -0.804785)
(1 0 -0)
(0.0190236 0.690794 -0.722801)
(1 0 -0)
(0.0439401 0.79932 -0.599297)
(1 0 -0)
(0.0255208 0.890308 -0.454643)
(1 0 -0)
(0.0312223 0.941637 -0.335179)
(1 0 -0)
(0.0257954 0.977856 -0.207683)
(1 0 -0)
(0.0279333 0.996001 -0.0848638)
(1 0 0)
(0.0143844 0.9993 0.0345228)
(1 0 0)
(0.0290658 0.975253 0.219172)
(1 0 0)
(0.0265219 0.938368 0.344619)
(1 0 0)
(0.0279928 0.89037 0.454377)
(1 0 0)
(0.0259127 0.821223 0.570019)
(1 0 0)
(0.0208259 0.745244 0.666466)
(1 0 0)
(0.0286274 0.651484 0.758122)
(1 0 0)
(0.0122396 0.501882 0.864849)
(1 0 0)
(0.00993295 0.398802 0.916983)
(1 0 0)
(0.0115993 0.291636 0.956459)
(1 0 0)
(0.0155054 0.174637 0.984511)
(1 0 0)
(0.00792594 0.0560613 0.998396)
(1 0 0)
(0.00808734 -0.0497932 0.998727)
(1 0 0)
(0.00884173 -0.172171 0.985027)
(1 0 0)
(0.00430569 -0.290681 0.95681)
(1 0 0)
(0.000842532 -0.400331 0.91637)
(1 0 0)
(0.00108526 -0.503813 0.863812)
(1 0 0)
(-0.000447166 -0.593579 0.804776)
(1 0 0)
(8.16385e-05 -0.685664 0.727918)
(1 0 0)
(0.0205339 -0.793583 0.608116)
(1 0 0)
(-0.00288729 -0.8874 0.46099)
(1 0 0)
(0.00249113 -0.938962 0.344012)
(1 0 0)
(-0.000595237 -0.975978 0.217868)
(1 0 0)
(-0.0105422 -0.995094 0.0983694)
(1 0 0)
(-0.00628318 -0.999322 0.0362728)
(1 0 0)
(0.00342447 -0.995935 -0.0900142)
(1 -0 0)
(-0.00363422 -0.963566 -0.267445)
(1 -0 0)
(-0.00467904 -0.92047 -0.390786)
(1 -0 0)
(-0.000908759 -0.854465 -0.519509)
(1 -0 0)
(-0.00281201 -0.783043 -0.621961)
(1 -0 0)
(-0.00188325 -0.703741 -0.710454)
(1 -0 0)
(-0.0028156 -0.497773 -0.867303)
(1 -0 0)
(0.00106584 -0.391325 -0.920252)
(1 -0 0)
(0.00452126 -0.280302 -0.959901)
(1 -0 0)
(0.00555361 -0.161279 -0.986893)
(1 -0 0)
(0.00858774 -0.0226748 -0.999706)
(1 0 0)
(0.0110687 0.0925452 -0.995647)
(1 0 0)
(0.0092092 0.229433 -0.973281)
(1 0 0)
(0.0135459 0.345501 -0.93832)
(1 0 0)
(0.0168424 0.450704 -0.892515)
(1 0 -0)
(0.0152791 0.547375 -0.836748)
(1 0 -0)
(0.0191126 0.641279 -0.76707)
(1 0 -0)
(0.0208559 0.737097 -0.675465)
(1 0 -0)
(0.0290035 0.856226 -0.515786)
(1 0 -0)
(0.0260395 0.916883 -0.398305)
(1 0 -0)
(0.0271168 0.962997 -0.268146)
(1 0 -0)
(0.0242732 0.988823 -0.147103)
(1 0 -0)
(0.014388 0.999551 -0.0263009)
(1 0 0)
(0.0472341 0.990677 0.127781)
(1 0 0)
(0.0274858 0.959061 0.281863)
(1 0 0)
(0.0226243 0.916557 0.399264)
(1 0 0)
(0.0235397 0.857993 0.513122)
(1 0 0)
(0.0191644 0.783296 0.621354)
(1 0 0)
(0.0169463 0.706091 0.707918)
(1 0 0)
(0.0301332 0.568528 0.822112)
(1 0 0)
(0.0166668 0.451082 0.892327)
(1 0 0)
(0.0117081 0.34906 0.937027)
(1 0 0)
(0.00751804 0.238136 0.971203)
(1 0 0)
(0.00676877 0.109269 0.993989)
(1 0 0)
(0.00491011 0.00492131 0.999976)
(1 0 0)
(0.00424128 -0.107913 0.994151)
(1 0 0)
(0.00258301 -0.235991 0.971752)
(1 0 0)
(0.00499285 -0.348459 0.937311)
(1 0 0)
(0.00718059 -0.453065 0.891449)
(1 0 0)
(0.00181837 -0.548265 0.836303)
(1 0 0)
(-0.00158977 -0.637155 0.770734)
(1 0 0)
(-0.00414952 -0.732121 0.681162)
(1 0 0)
(-0.00268389 -0.852805 0.522222)
(1 0 0)
(-0.000423791 -0.914314 0.405005)
(1 0 0)
(-0.00279689 -0.95933 0.282274)
(1 0 0)
(-0.00316851 -0.988203 0.153119)
(0.999101 -0.042383 -3.05149e-32)
(0 -0 1)
(0.99186 -0.126841 0.0111765)
(0 -0 1)
(0.956221 -0.292422 0.0113887)
(0 -0 1)
(0.89315 -0.449608 0.0116172)
(0 -0 1)
(0.803739 -0.594875 0.0113313)
(0 -0 1)
(0.691812 -0.721992 0.0111453)
(0 -0 1)
(0.560032 -0.828395 0.0112329)
(0 -0 1)
(0.412187 -0.911029 0.0113276)
(0 0 1)
(0.252512 -0.967527 0.0113503)
(0 0 1)
(0.0855928 -0.996262 0.0116591)
(0 0 1)
(-0.0837793 -0.99642 0.0113061)
(-0 0 1)
(-0.250751 -0.967986 0.0112715)
(-0 0 1)
(-0.410526 -0.911779 0.0113066)
(-0 0 1)
(-0.558524 -0.829408 0.0115297)
(-0 0 1)
(-0.690493 -0.723248 0.0114562)
(-0 0 1)
(-0.802653 -0.596336 0.0115073)
(-0 0 1)
(-0.89179 -0.452313 0.0110956)
(-0 0 1)
(-0.955344 -0.295229 0.0125949)
(0 0 1)
(-0.991845 -0.126841 0.0124458)
(0 0 1)
(-0.999017 -0.0423821 0.0129603)
(0 0 1)
(0.977552 -0.210386 0.0114299)
(0 -0 1)
(0.928016 -0.372357 0.0116633)
(0 -0 1)
(0.851542 -0.524154 0.0117476)
(0 -0 1)
(0.750474 -0.660807 0.011105)
(0 -0 1)
(0.62818 -0.777988 0.0111652)
(0 -0 1)
(0.48786 -0.872849 0.0112636)
(0 -0 1)
(0.333544 -0.942664 0.0115114)
(0 0 1)
(0.169662 -0.985437 0.0113527)
(0 0 1)
(0.000908761 -0.999932 0.011637)
(0 0 1)
(-0.167868 -0.985747 0.0110813)
(-0 0 1)
(-0.331828 -0.94327 0.0114848)
(-0 0 1)
(-0.486271 -0.873735 0.0113127)
(-0 0 1)
(-0.626759 -0.77913 0.0114167)
(-0 0 1)
(-0.749272 -0.662162 0.0115184)
(-0 0 1)
(-0.850277 -0.526211 0.0114012)
(-0 0 1)
(-0.926892 -0.37515 0.0115237)
(0 0 1)
(-0.977226 -0.211774 0.0134614)
(0 0 1)
(-0.999101 0.0424046 0)
(0 0 1)
(-0.99186 0.12689 0.0106534)
(0 0 1)
(-0.956189 0.292537 0.0111785)
(0 0 1)
(-0.89307 0.449766 0.0116934)
(0 0 1)
(-0.804309 0.594096 0.0116709)
(0 0 1)
(-0.69245 0.721371 0.0116949)
(0 0 1)
(-0.560712 0.827929 0.0116697)
(0 0 1)
(-0.412875 0.910714 0.0115732)
(0 0 1)
(-0.253184 0.96735 0.0115018)
(0 0 1)
(-0.0862234 0.996212 0.0113103)
(0 0 1)
(0.0832146 0.996462 0.0117855)
(0 0 1)
(0.250261 0.968103 0.0120595)
(0 0 1)
(0.41012 0.911943 0.0126849)
(0 0 1)
(0.558199 0.829597 0.0135067)
(0 0 1)
(0.690265 0.723451 0.0123883)
(0 0 1)
(0.802502 0.596517 0.0125781)
(0 0 1)
(0.891718 0.452469 0.0105133)
(0 0 1)
(0.955302 0.295416 0.0112843)
(0 0 1)
(0.991848 0.126887 0.0117265)
(0 0 1)
(0.999023 0.0423969 0.0124688)
(0 0 1)
(-0.977546 0.210458 0.0105634)
(0 0 1)
(-0.927962 0.372493 0.011622)
(0 0 1)
(-0.851746 0.523825 0.0116819)
(0 0 1)
(-0.751078 0.66011 0.011689)
(0 0 1)
(-0.628847 0.777441 0.0116845)
(0 0 1)
(-0.488553 0.872456 0.0116572)
(0 0 1)
(-0.334234 0.94242 0.0115422)
(0 0 1)
(-0.170319 0.985324 0.0112826)
(0 0 1)
(-0.00150933 0.999931 0.0116532)
(0 0 1)
(0.16734 0.985827 0.0119105)
(0 0 1)
(0.331385 0.943415 0.0123038)
(0 0 1)
(0.485904 0.87391 0.0133521)
(0 0 1)
(0.626491 0.779335 0.0120281)
(0 0 1)
(0.749088 0.662382 0.0108667)
(0 0 1)
(0.850159 0.526395 0.0117398)
(0 0 1)
(0.926832 0.375289 0.0118101)
(0 0 1)
(0.97721 0.211941 0.0118647)
(0 0 1)
(-0.0258004 -5.21368e-05 0.999667)
(-0.00573511 -0.999983 -0.000810872)
(-0.138377 0.00426551 0.990371)
(-0.030457 -0.999535 -0.00132456)
(-0.191789 0.00344132 0.98143)
(-0.0423248 -0.999103 -0.000916469)
(-0.244673 0.00338697 0.9696)
(-0.0540862 -0.998536 -0.000475961)
(-0.391816 0.0171429 0.919884)
(-0.0862036 -0.996276 -0.00178246)
(-0.491025 0.0158374 0.871001)
(-0.107701 -0.994181 -0.002157)
(-0.601044 0.00318225 0.799209)
(-0.133692 -0.991023 0.000728633)
(-0.677134 0.00340652 0.735852)
(-0.151891 -0.988395 0.00211264)
(-0.825251 0.0024886 0.564761)
(-0.186041 -0.982539 0.00232549)
(-0.880094 -0.000711929 0.474798)
(-0.20081 -0.979624 0.00333688)
(-0.942311 0.00281072 0.334727)
(-0.215316 -0.976541 0.00248772)
(-0.972545 -0.00238206 0.232702)
(-0.220808 -0.975316 0.00137628)
(-0.994141 0.00752118 0.107833)
(-0.228761 -0.973482 0.00100263)
(-0.999871 0.010864 0.0118195)
(-0.230287 -0.973123 8.69382e-05)
(-0.996119 0.0112964 -0.0872922)
(-0.229288 -0.973358 -0.000813801)
(-0.982537 0.0122357 -0.185663)
(-0.226094 -0.974104 -0.00171822)
(-0.958334 0.0143194 -0.285291)
(-0.219672 -0.975571 -0.00235968)
(-0.924042 0.0134196 -0.382057)
(-0.211296 -0.977418 -0.00292366)
(-0.881845 0.0132204 -0.471354)
(-0.201473 -0.979488 -0.00345534)
(-0.833839 0.0107182 -0.551904)
(-0.190472 -0.981685 -0.00397346)
(-0.792451 -0.00118398 -0.609934)
(-0.180725 -0.983525 -0.00420695)
(-0.726119 0.0059553 -0.687544)
(-0.162902 -0.98664 -0.00194925)
(-0.687682 0.00484954 -0.725996)
(-0.153364 -0.988169 -0.00112689)
(-0.646227 0.00310416 -0.763139)
(-0.144217 -0.989545 -0.00127093)
(-0.603738 0.0033954 -0.797176)
(-0.134178 -0.990957 -0.000575172)
(-0.554323 0.00401079 -0.832292)
(-0.122798 -0.992432 2.64374e-06)
(-0.502925 -0.00040438 -0.86433)
(-0.111302 -0.993787 8.35214e-05)
(-0.411361 0.0058786 -0.911453)
(-0.0913687 -0.995817 -0.000401962)
(-0.362722 0.0043992 -0.931887)
(-0.0802183 -0.996777 0.000406352)
(-0.215796 0.00477216 -0.976427)
(-0.0477138 -0.998861 0.000573127)
(-0.162384 0.00338427 -0.986722)
(-0.0358281 -0.999357 0.00101219)
(-0.0811194 0.0046247 0.996694)
(-0.0178524 -0.999839 -0.0015268)
(-0.560149 0.00306063 0.828386)
(-0.124209 -0.992256 0.000180791)
(-0.639627 0.00323541 0.768678)
(-0.142628 -0.989776 0.00113408)
(-0.719293 0.00549592 0.694685)
(-0.162585 -0.986689 0.00321603)
(-0.854435 -0.000688924 0.519558)
(-0.193406 -0.981115 0.00265284)
(-0.759368 0.000972357 -0.650661)
(-0.171403 -0.985197 -0.00284829)
(-0.456165 0.000366895 -0.889895)
(-0.100853 -0.994901 0.000312489)
(-0.0443282 0.0108742 -0.998958)
(-0.0097146 -0.999949 0.00272649)
(-0.113413 0.0027348 -0.993544)
(-0.025026 -0.999686 0.000889796)
(-0.912425 0.0121748 0.409063)
(-0.207928 -0.97814 0.00277366)
(-0.306255 0.00727934 0.951922)
(-0.0678901 -0.997693 1.40977e-05)
(-0.959816 0.00198646 0.280625)
(-0.219345 -0.975645 0.00208129)
(-0.98345 -0.00244085 0.181163)
(-0.225072 -0.974341 0.00145126)
(-0.290691 0.00821369 -0.956782)
(-0.0637182 -0.997965 0.00232731)
(-0.77588 0.0146874 0.63071)
(-0.173883 -0.984765 0.00168003)
(0.0117904 -0.999925 -0.00320461)
(0.0537823 0.0147382 0.998444)
(0.0345934 -0.999398 -0.00250083)