/*--------------------------------*- C++ -*----------------------------------*\
  =========                 |
  \\      /  F ield         | OpenFOAM: The Open Source CFD Toolbox
   \\    /   O peration     | Website:  https://openfoam.org
    \\  /    A nd           | Version:  13
     \\/     M anipulation  |
\*---------------------------------------------------------------------------*/
FoamFile
{
    format      ascii;
    class       extendedFeatureEdgeMesh;
    location    "constant/extendedFeatureEdgeMesh";
    object      gas_gen.extendedFeatureEdgeMesh;
}
// * * * * * * * * * * * * * * * * * * * * * * * * * * * * * * * * * * * * * //

// points

28
(
(-0.940376 0.3966 0)
(-0.940376 0.4726 0)
(-0.860376 0.2346 0)
(-0.860376 0.394592 0)
(-0.860376 0.6346 0)
(-0.860376 0.474842 0)
(-0.260376 0.2346 0)
(-0.260376 0.6346 0)
(-0.940376 0.4726 0.02)
(-0.940376 0.3966 0.02)
(-0.860376 0.394592 0.02)
(-0.860376 0.2346 0.02)
(-0.860376 0.6346 0.02)
(-0.860376 0.474842 0.02)
(-0.260376 0.2346 0.02)
(-0.260376 0.6346 0.02)
(-0.771172 0.402397 0)
(-0.771172 0.427404 0)
(-0.771172 0.404404 0)
(-0.771172 0.429646 0)
(-0.771172 0.402397 0.02)
(-0.771172 0.427404 0.02)
(-0.771172 0.404404 0.02)
(-0.771172 0.429646 0.02)
(-0.860376 0.3966 0)
(-0.860376 0.4726 0)
(-0.860376 0.4726 0.02)
(-0.860376 0.3966 0.02)
)

// edges

40
(
(24 0)
(0 1)
(1 25)
(3 16)
(2 3)
(18 24)
(19 5)
(5 4)
(16 18)
(17 19)
(6 2)
(4 7)
(7 6)
(25 17)
(8 9)
(26 8)
(9 27)
(20 10)
(10 11)
(27 22)
(13 23)
(12 13)
(22 20)
(23 21)
(11 14)
(15 12)
(14 15)
(21 26)
(8 1)
(0 9)
(3 10)
(13 5)
(2 11)
(12 4)
(14 6)
(7 15)
(21 17)
(20 16)
(18 22)
(19 23)
)

// concaveStart mixedStart nonFeatureStart
16 16 24
// internalStart flatStart openStart multipleStart
36 40 40 40
// normals

50
(
(0 -0 -1)
(0 -1 0)
(-0 0 -1)
(-1 0 0)
(0 1 0)
(0 0 -1)
(-0.0871553 0.996195 0)
(-1 0 0)
(0 -0 -1)
(0.0871563 -0.996195 0)
(0 0 -1)
(-0.451957 -0.89204 -0)
(-1 0 0)
(0 0 -1)
(-1 0 0)
(0 0 -1)
(-1 0 0)
(0 0 -1)
(0 -1 0)
(-0 0 -1)
(0 1 0)
(0 -0 -1)
(1 0 0)
(-0 0 -1)
(0.451956 0.89204 0)
(0 0 1)
(-1 0 0)
(0 1 -0)
(0 0 1)
(0 -1 0)
(0 0 1)
(-0.0871553 0.996195 0)
(-1 0 0)
(0 0 1)
(0.0871563 -0.996195 0)
(0 0 1)
(-0.451957 -0.89204 0)
(-1 0 0)
(0 0 1)
(-1 0 0)
(0 0 1)
(-1 0 0)
(0 0 1)
(0 -1 0)
(0 0 1)
(0 1 -0)
(0 0 1)
(1 0 0)
(0 0 1)
(0.451956 0.89204 0)
)

// normal volume types

50
(
0
0
0
0
0
0
0
0
0
0
0
0
0
0
0
0
0
0
0
0
0
0
0
0
0
0
0
0
0
0
0
0
0
0
0
0
0
0
0
0
0
0
0
0
0
0
0
0
0
0
)

// normalDirections

40
(
2(1 -1)
2(1 -1)
2(1 -1)
2(1 -1)
2(1 -1)
2(1 -1)
2(1 -1)
2(1 -1)
2(1 -1)
2(1 -1)
2(1 -1)
2(1 -1)
2(1 -1)
2(1 -1)
2(1 -1)
2(1 -1)
2(1 -1)
2(1 -1)
2(1 -1)
2(1 -1)
2(1 -1)
2(1 -1)
2(1 -1)
2(1 -1)
2(1 -1)
2(1 -1)
2(1 -1)
2(1 -1)
2(1 -1)
2(1 -1)
2(1 -1)
2(1 -1)
2(1 -1)
2(1 -1)
2(1 -1)
2(1 -1)
2(1 -1)
2(1 -1)
2(1 -1)
2(1 -1)
)

// edgeNormals

40
(
2(0 1)
2(2 3)
2(2 4)
2(5 6)
2(5 7)
2(8 9)
2(10 11)
2(10 12)
2(13 14)
2(15 16)
2(17 18)
2(19 20)
2(21 22)
2(23 24)
2(25 26)
2(25 27)
2(28 29)
2(30 31)
2(30 32)
2(33 34)
2(35 36)
2(35 37)
2(38 39)
2(40 41)
2(42 43)
2(44 45)
2(46 47)
2(48 49)
2(26 4)
2(3 1)
2(31 32)
2(11 12)
2(7 18)
2(37 20)
2(47 43)
2(22 45)
2(24 16)
2(6 14)
2(34 39)
2(36 41)
)

// featurePointNormals

24
(
3(0 1 3)
3(2 3 4)
3(5 7 18)
3(5 6 7)
3(10 12 20)
3(10 11 12)
3(17 18 22)
3(19 20 22)
3(25 26 27)
3(25 26 29)
3(30 31 32)
3(30 32 43)
3(35 37 45)
3(35 36 37)
3(42 43 47)
3(44 45 47)
3(5 6 14)
3(15 16 24)
3(8 9 14)
3(10 11 16)
3(30 31 39)
3(40 41 49)
3(33 34 39)
3(35 36 41)
)

// featurePointEdges

24
(
3(1 29 0)
3(1 28 2)
3(10 32 4)
3(3 30 4)
3(11 33 7)
3(6 31 7)
3(12 34 10)
3(12 35 11)
3(14 28 15)
3(16 29 14)
3(17 30 18)
3(24 32 18)
3(25 33 21)
3(20 31 21)
3(26 34 24)
3(26 35 25)
3(8 37 3)
3(9 36 13)
3(8 38 5)
3(9 39 6)
3(22 37 17)
3(23 36 27)
3(22 38 19)
3(23 39 20)
)

// regionEdges

36
(
0
1
2
3
4
5
6
7
8
9
10
11
12
13
14
15
16
17
18
19
20
21
22
23
24
25
26
27
28
29
30
31
32
33
34
35
)



// ************************************************************************* //
