/*--------------------------------*- C++ -*----------------------------------*\
  =========                 |
  \\      /  F ield         | OpenFOAM: The Open Source CFD Toolbox
   \\    /   O peration     | Website:  https://openfoam.org
    \\  /    A nd           | Version:  12
     \\/     M anipulation  |
\*---------------------------------------------------------------------------*/
FoamFile
{
    format      ascii;
    class       extendedFeatureEdgeMesh;
    location    "constant/extendedFeatureEdgeMesh";
    object      gas_generator.extendedFeatureEdgeMesh;
}
// * * * * * * * * * * * * * * * * * * * * * * * * * * * * * * * * * * * * * //

// points

28
(
(-0.940376 0.4726 0.02)
(-0.940376 0.3966 0.02)
(-0.860376 0.394592 0.02)
(-0.860376 0.2346 0.02)
(-0.860376 0.6346 0.02)
(-0.860376 0.474842 0.02)
(-0.260376 0.2346 0.02)
(-0.260376 0.6346 0.02)
(-0.940376 0.3966 0)
(-0.940376 0.4726 0)
(-0.860376 0.2346 0)
(-0.860376 0.394592 0)
(-0.860376 0.6346 0)
(-0.860376 0.474842 0)
(-0.260376 0.2346 0)
(-0.260376 0.6346 0)
(-0.860376 0.4726 0.02)
(-0.860376 0.3966 0.02)
(-0.771172 0.402397 0.02)
(-0.771172 0.404404 0.02)
(-0.771172 0.429646 0.02)
(-0.771172 0.427404 0.02)
(-0.860376 0.3966 0)
(-0.860376 0.4726 0)
(-0.771172 0.402397 0)
(-0.771172 0.404404 0)
(-0.771172 0.429646 0)
(-0.771172 0.427404 0)
)

// edges

36
(
(0 1)
(16 0)
(1 17)
(2 3)
(18 2)
(17 19)
(4 5)
(5 20)
(19 18)
(20 21)
(3 6)
(7 4)
(6 7)
(21 16)
(22 8)
(8 9)
(9 23)
(10 11)
(11 24)
(25 22)
(13 12)
(26 13)
(24 25)
(27 26)
(14 10)
(12 15)
(15 14)
(23 27)
(2 11)
(10 3)
(4 12)
(13 5)
(0 9)
(8 1)
(6 14)
(15 7)
)

// concaveStart mixedStart nonFeatureStart
16 16 16
// internalStart flatStart openStart multipleStart
36 36 36 36
// normals

50
(
(0 0 1)
(-1 0 0)
(0 1 -0)
(0 0 1)
(0 -1 0)
(0 0 1)
(-1 0 0)
(-0.0871553 0.996195 0)
(0 0 1)
(0.0871563 -0.996195 0)
(0 0 1)
(-1 0 0)
(-0.451957 -0.89204 0)
(0 0 1)
(-1 0 0)
(0 0 1)
(-1 0 0)
(0 0 1)
(0 -1 0)
(0 0 1)
(0 1 -0)
(0 0 1)
(1 0 0)
(0 0 1)
(0.451956 0.89204 0)
(0 -0 -1)
(0 -1 0)
(-0 0 -1)
(-1 0 0)
(0 1 0)
(0 0 -1)
(-1 0 0)
(-0.0871553 0.996195 0)
(0 -0 -1)
(0.0871563 -0.996195 0)
(0 0 -1)
(-1 0 0)
(-0.451957 -0.89204 -0)
(0 0 -1)
(-1 0 0)
(0 0 -1)
(-1 0 0)
(0 0 -1)
(0 -1 0)
(-0 0 -1)
(0 1 0)
(0 -0 -1)
(1 0 0)
(-0 0 -1)
(0.451956 0.89204 0)
)

// normal volume types

50
(
0
0
0
0
0
0
0
0
0
0
0
0
0
0
0
0
0
0
0
0
0
0
0
0
0
0
0
0
0
0
0
0
0
0
0
0
0
0
0
0
0
0
0
0
0
0
0
0
0
0
)

// normalDirections

36
(
2(1 -1)
2(1 -1)
2(1 -1)
2(1 -1)
2(1 -1)
2(1 -1)
2(1 -1)
2(1 -1)
2(1 -1)
2(1 -1)
2(1 -1)
2(1 -1)
2(1 -1)
2(1 -1)
2(1 -1)
2(1 -1)
2(1 -1)
2(1 -1)
2(1 -1)
2(1 -1)
2(1 -1)
2(1 -1)
2(1 -1)
2(1 -1)
2(1 -1)
2(1 -1)
2(1 -1)
2(1 -1)
2(1 -1)
2(1 -1)
2(1 -1)
2(1 -1)
2(1 -1)
2(1 -1)
2(1 -1)
2(1 -1)
)

// edgeNormals

36
(
2(0 1)
2(0 2)
2(3 4)
2(5 6)
2(5 7)
2(8 9)
2(10 11)
2(10 12)
2(13 14)
2(15 16)
2(17 18)
2(19 20)
2(21 22)
2(23 24)
2(25 26)
2(27 28)
2(27 29)
2(30 31)
2(30 32)
2(33 34)
2(35 36)
2(35 37)
2(38 39)
2(40 41)
2(42 43)
2(44 45)
2(46 47)
2(48 49)
2(6 7)
2(31 43)
2(11 45)
2(36 37)
2(1 29)
2(28 26)
2(22 18)
2(47 20)
)

// featurePointNormals

16
(
3(0 1 2)
3(0 1 4)
3(5 6 7)
3(5 6 18)
3(10 11 20)
3(10 11 12)
3(17 18 22)
3(19 20 22)
3(25 26 28)
3(27 28 29)
3(30 31 43)
3(30 31 32)
3(35 36 45)
3(35 36 37)
3(42 43 47)
3(44 45 47)
)

// featurePointEdges

16
(
3(0 32 1)
3(2 33 0)
3(3 28 4)
3(10 29 3)
3(11 30 6)
3(6 31 7)
3(12 34 10)
3(12 35 11)
3(15 33 14)
3(15 32 16)
3(24 29 17)
3(17 28 18)
3(25 30 20)
3(20 31 21)
3(26 34 24)
3(26 35 25)
)

// regionEdges

36
(
0
1
2
3
4
5
6
7
8
9
10
11
12
13
14
15
16
17
18
19
20
21
22
23
24
25
26
27
28
29
30
31
32
33
34
35
)



// ************************************************************************* //
