/*--------------------------------*- C++ -*----------------------------------*\
  =========                 |
  \\      /  F ield         | OpenFOAM: The Open Source CFD Toolbox
   \\    /   O peration     | Website:  https://openfoam.org
    \\  /    A nd           | Version:  12
     \\/     M anipulation  |
\*---------------------------------------------------------------------------*/
FoamFile
{
    format      ascii;
    class       extendedFeatureEdgeMesh;
    location    "constant/extendedFeatureEdgeMesh";
    object      pipe.extendedFeatureEdgeMesh;
}
// * * * * * * * * * * * * * * * * * * * * * * * * * * * * * * * * * * * * * //

// points

102
(
(-0.174625 0.0495333 0.290946)
(-0.174595 0.0490418 0.290946)
(-0.174504 0.0485577 0.290946)
(-0.174355 0.0480883 0.290946)
(-0.174149 0.0476409 0.290946)
(-0.17389 0.0472222 0.290946)
(-0.173581 0.0468385 0.290946)
(-0.173228 0.0464957 0.290946)
(-0.172835 0.0461989 0.290946)
(-0.172408 0.0459527 0.290946)
(-0.171955 0.0457607 0.290946)
(-0.171481 0.0456259 0.290946)
(-0.170994 0.0455504 0.290946)
(-0.170502 0.0455352 0.290946)
(-0.170012 0.0455806 0.290946)
(-0.169531 0.045686 0.290946)
(-0.169066 0.0458497 0.290946)
(-0.168625 0.0460692 0.290946)
(-0.168215 0.0463412 0.290946)
(-0.167841 0.0466617 0.290946)
(-0.167509 0.0470256 0.290946)
(-0.167224 0.0474276 0.290946)
(-0.166991 0.0478615 0.290946)
(-0.166813 0.0483207 0.290946)
(-0.166693 0.0487983 0.290946)
(-0.166633 0.0492871 0.290946)
(-0.166633 0.0497795 0.290946)
(-0.166693 0.0502683 0.290946)
(-0.166813 0.0507459 0.290946)
(-0.166991 0.0512052 0.290946)
(-0.167224 0.051639 0.290946)
(-0.167509 0.052041 0.290946)
(-0.167841 0.052405 0.290946)
(-0.168215 0.0527254 0.290946)
(-0.168625 0.0529974 0.290946)
(-0.169066 0.0532169 0.290946)
(-0.169531 0.0533806 0.290946)
(-0.170012 0.053486 0.290946)
(-0.170502 0.0535314 0.290946)
(-0.170994 0.0535162 0.290946)
(-0.171481 0.0534407 0.290946)
(-0.171955 0.0533059 0.290946)
(-0.172408 0.053114 0.290946)
(-0.172835 0.0528677 0.290946)
(-0.173228 0.0525709 0.290946)
(-0.173581 0.0522281 0.290946)
(-0.17389 0.0518444 0.290946)
(-0.174149 0.0514257 0.290946)
(-0.174355 0.0509783 0.290946)
(-0.174504 0.050509 0.290946)
(-0.174595 0.0500249 0.290946)
(-0.128974 0.0643661 0.290946)
(-0.128944 0.0638746 0.290946)
(-0.128854 0.0633905 0.290946)
(-0.128704 0.0629212 0.290946)
(-0.128499 0.0624738 0.290946)
(-0.128239 0.062055 0.290946)
(-0.127931 0.0616713 0.290946)
(-0.127577 0.0613285 0.290946)
(-0.127184 0.0610317 0.290946)
(-0.126758 0.0607855 0.290946)
(-0.126304 0.0605935 0.290946)
(-0.12583 0.0604587 0.290946)
(-0.125344 0.0603832 0.290946)
(-0.124851 0.060368 0.290946)
(-0.124361 0.0604135 0.290946)
(-0.12388 0.0605188 0.290946)
(-0.123415 0.0606825 0.290946)
(-0.122975 0.060902 0.290946)
(-0.122564 0.061174 0.290946)
(-0.12219 0.0614945 0.290946)
(-0.121858 0.0618584 0.290946)
(-0.121574 0.0622604 0.290946)
(-0.121341 0.0626943 0.290946)
(-0.121163 0.0631535 0.290946)
(-0.121043 0.0636311 0.290946)
(-0.120982 0.0641199 0.290946)
(-0.120982 0.0646124 0.290946)
(-0.121043 0.0651011 0.290946)
(-0.121163 0.0655787 0.290946)
(-0.121341 0.066038 0.290946)
(-0.121574 0.0664719 0.290946)
(-0.121858 0.0668738 0.290946)
(-0.12219 0.0672378 0.290946)
(-0.122564 0.0675582 0.290946)
(-0.122975 0.0678302 0.290946)
(-0.123415 0.0680497 0.290946)
(-0.12388 0.0682134 0.290946)
(-0.124361 0.0683188 0.290946)
(-0.124851 0.0683642 0.290946)
(-0.125344 0.0683491 0.290946)
(-0.12583 0.0682735 0.290946)
(-0.126304 0.0681387 0.290946)
(-0.126758 0.0679468 0.290946)
(-0.127184 0.0677005 0.290946)
(-0.127577 0.0674037 0.290946)
(-0.127931 0.0670609 0.290946)
(-0.128239 0.0666772 0.290946)
(-0.128499 0.0662585 0.290946)
(-0.128704 0.0658111 0.290946)
(-0.128854 0.0653418 0.290946)
(-0.128944 0.0648577 0.290946)
)

// edges

102
(
(0 1)
(2 3)
(4 5)
(6 7)
(8 9)
(10 11)
(12 13)
(14 15)
(16 17)
(18 19)
(20 21)
(22 23)
(24 25)
(26 27)
(28 29)
(30 31)
(32 33)
(34 35)
(36 37)
(38 39)
(40 41)
(42 43)
(44 45)
(46 47)
(48 49)
(50 0)
(1 2)
(3 4)
(5 6)
(7 8)
(9 10)
(11 12)
(13 14)
(15 16)
(17 18)
(19 20)
(21 22)
(23 24)
(25 26)
(27 28)
(29 30)
(31 32)
(33 34)
(35 36)
(37 38)
(39 40)
(41 42)
(43 44)
(45 46)
(47 48)
(49 50)
(51 52)
(53 54)
(55 56)
(57 58)
(59 60)
(61 62)
(63 64)
(65 66)
(67 68)
(69 70)
(71 72)
(73 74)
(75 76)
(77 78)
(79 80)
(81 82)
(83 84)
(85 86)
(87 88)
(89 90)
(91 92)
(93 94)
(95 96)
(97 98)
(99 100)
(101 51)
(52 53)
(54 55)
(56 57)
(58 59)
(60 61)
(62 63)
(64 65)
(66 67)
(68 69)
(70 71)
(72 73)
(74 75)
(76 77)
(78 79)
(80 81)
(82 83)
(84 85)
(86 87)
(88 89)
(90 91)
(92 93)
(94 95)
(96 97)
(98 99)
(100 101)
)

// concaveStart mixedStart nonFeatureStart
0 0 0
// internalStart flatStart openStart multipleStart
102 102 102 102
// normals

204
(
(0 0 1)
(-0.998105 -0.0615419 -0)
(0 0 1)
(-0.952797 -0.303098 0.0175828)
(-0 0 1)
(-0.85003 -0.526414 0.0183564)
(-0 0 1)
(-0.695978 -0.717857 0.0171915)
(-0 0 1)
(-0.499941 -0.865893 0.0169971)
(-0 0 1)
(-0.273623 -0.961689 0.016891)
(-0 0 1)
(-0.0307952 -0.999392 0.016343)
(0 0 1)
(0.21394 -0.976703 0.0167767)
(0 0 1)
(0.445643 -0.895051 0.0169098)
(0 -0 1)
(0.65053 -0.75929 0.0170027)
(0 -0 1)
(0.816034 -0.577757 0.0168896)
(0 -0 1)
(0.932283 -0.36134 0.0167786)
(0 -0 1)
(0.992285 -0.122828 0.0168569)
(0 0 1)
(0.992285 0.122827 0.0168675)
(0 0 1)
(0.93228 0.361344 0.016892)
(0 0 1)
(0.816033 0.577756 0.0169573)
(0 0 1)
(0.650531 0.759291 0.0169313)
(0 0 1)
(0.445643 0.895052 0.0168758)
(0 0 1)
(0.213947 0.976701 0.0167712)
(0 0 1)
(-0.030795 0.999387 0.0166756)
(0 0 1)
(-0.273623 0.961689 0.0168821)
(0 0 1)
(-0.499926 0.865905 0.0168028)
(0 0 1)
(-0.695999 0.717848 0.016738)
(0 0 1)
(-0.850041 0.526425 0.0175346)
(0 0 1)
(-0.952746 0.303084 0.0203822)
(0 0 1)
(-0.998093 0.0615426 0.00467707)
(0 0 1)
(-0.982823 -0.183722 0.0174647)
(-0 0 1)
(-0.908341 -0.417822 0.0184833)
(-0 0 1)
(-0.779021 -0.626751 0.0175912)
(-0 0 1)
(-0.602558 -0.797895 0.0169713)
(-0 0 1)
(-0.389682 -0.920795 0.0168665)
(-0 0 1)
(-0.153385 -0.988024 0.0167813)
(0 0 1)
(0.0922509 -0.995596 0.016699)
(0 0 1)
(0.332305 -0.943022 0.0168124)
(0 -0 1)
(0.55232 -0.833461 0.0168995)
(0 -0 1)
(0.738882 -0.673621 0.0169868)
(0 -0 1)
(0.880958 -0.472894 0.016847)
(0 -0 1)
(0.969672 -0.24384 0.0166886)
(0 -0 1)
(0.999859 0 0.0168082)
(0 0 1)
(0.969672 0.243836 0.0167615)
(0 0 1)
(0.880957 0.472894 0.0168948)
(0 0 1)
(0.738882 0.673621 0.016996)
(0 0 1)
(0.552319 0.83346 0.0169754)
(0 0 1)
(0.332299 0.943024 0.0168147)
(0 0 1)
(0.0922434 0.995596 0.016721)
(0 0 1)
(-0.153378 0.988025 0.0168152)
(0 0 1)
(-0.389682 0.920796 0.0168139)
(0 0 1)
(-0.60256 0.797898 0.016748)
(0 0 1)
(-0.779028 0.626756 0.0170687)
(0 0 1)
(-0.908342 0.417819 0.0184882)
(0 0 1)
(-0.98296 0.183748 -0.00519162)
(0 0 1)
(-0.998106 -0.0615136 -0)
(0 0 1)
(-0.952789 -0.303091 0.0181662)
(-0 0 1)
(-0.850062 -0.526403 0.0171846)
(-0 0 1)
(-0.696101 -0.717749 0.0167541)
(-0 0 1)
(-0.499931 -0.865902 0.0167809)
(-0 0 1)
(-0.27361 -0.961691 0.0169514)
(-0 0 1)
(-0.0307713 -0.999384 0.016887)
(0 0 1)
(0.21394 -0.976702 0.016844)
(0 0 1)
(0.445637 -0.895054 0.0169066)
(0 -0 1)
(0.650512 -0.759299 0.0172691)
(0 -0 1)
(0.816019 -0.577777 0.0169365)
(0 -0 1)
(0.932342 -0.361187 0.0168121)
(0 -0 1)
(0.992286 -0.122824 0.0168459)
(0 0 1)
(0.992285 0.122829 0.0168583)
(0 0 1)
(0.932342 0.361187 0.0167801)
(0 0 1)
(0.816023 0.57777 0.0169556)
(0 0 1)
(0.650517 0.759304 0.0169014)
(0 0 1)
(0.445631 0.895059 0.0168235)
(0 0 1)
(0.21394 0.976702 0.0168377)
(0 0 1)
(-0.0307638 0.999385 0.0168111)
(0 0 1)
(-0.273603 0.961694 0.016894)
(0 0 1)
(-0.499932 0.865904 0.0166664)
(0 0 1)
(-0.6961 0.717747 0.0168513)
(0 0 1)
(-0.850063 0.526404 0.0170842)
(0 0 1)
(-0.952809 0.303102 0.0168868)
(0 0 1)
(-0.998078 0.0615109 0.00758954)
(0 0 1)
(-0.982824 -0.183753 0.0170649)
(0 0 1)
(-0.908352 -0.417834 0.0176678)
(-0 0 1)
(-0.77893 -0.626889 0.0166453)
(-0 0 1)
(-0.602561 -0.797898 0.016684)
(-0 0 1)
(-0.389684 -0.920795 0.0167894)
(-0 0 1)
(-0.153407 -0.988018 0.0169401)
(0 0 1)
(0.0922521 -0.995593 0.0168323)
(0 0 1)
(0.332305 -0.94302 0.0169074)
(0 -0 1)
(0.552317 -0.833459 0.0170772)
(0 -0 1)
(0.738899 -0.673601 0.0170062)
(0 -0 1)
(0.880888 -0.473026 0.0168407)
(0 -0 1)
(0.969672 -0.243829 0.0168299)
(0 -0 1)
(0.999858 0 0.0168605)
(0 0 1)
(0.969672 0.243825 0.0168893)
(0 0 1)
(0.880886 0.473025 0.0169615)
(0 0 1)
(0.738893 0.673609 0.0169362)
(0 0 1)
(0.552319 0.833463 0.016859)
(0 0 1)
(0.332305 0.943021 0.0168879)
(0 0 1)
(0.0922521 0.995593 0.0168311)
(0 0 1)
(-0.153414 0.988018 0.0168445)
(0 0 1)
(-0.389691 0.920794 0.0167305)
(0 0 1)
(-0.602556 0.797902 0.0167154)
(0 0 1)
(-0.778921 0.626894 0.0169391)
(0 0 1)
(-0.908359 0.41783 0.0174042)
(0 0 1)
(-0.982922 0.183768 -0.0096874)
)

// normal volume types

204
(
0
0
0
0
0
0
0
0
0
0
0
0
0
0
0
0
0
0
0
0
0
0
0
0
0
0
0
0
0
0
0
0
0
0
0
0
0
0
0
0
0
0
0
0
0
0
0
0
0
0
0
0
0
0
0
0
0
0
0
0
0
0
0
0
0
0
0
0
0
0
0
0
0
0
0
0
0
0
0
0
0
0
0
0
0
0
0
0
0
0
0
0
0
0
0
0
0
0
0
0
0
0
0
0
0
0
0
0
0
0
0
0
0
0
0
0
0
0
0
0
0
0
0
0
0
0
0
0
0
0
0
0
0
0
0
0
0
0
0
0
0
0
0
0
0
0
0
0
0
0
0
0
0
0
0
0
0
0
0
0
0
0
0
0
0
0
0
0
0
0
0
0
0
0
0
0
0
0
0
0
0
0
0
0
0
0
0
0
0
0
0
0
0
0
0
0
0
0
0
0
0
0
0
0
)

// normalDirections

102
(
2(1 -1)
2(1 -1)
2(1 -1)
2(1 -1)
2(1 -1)
2(1 -1)
2(1 -1)
2(1 -1)
2(1 -1)
2(1 -1)
2(1 -1)
2(1 -1)
2(1 -1)
2(1 -1)
2(1 -1)
2(1 -1)
2(1 -1)
2(1 -1)
2(1 -1)
2(1 -1)
2(1 -1)
2(1 -1)
2(1 -1)
2(1 -1)
2(1 -1)
2(1 -1)
2(1 -1)
2(1 -1)
2(1 -1)
2(1 -1)
2(1 -1)
2(1 -1)
2(1 -1)
2(1 -1)
2(1 -1)
2(1 -1)
2(1 -1)
2(1 -1)
2(1 -1)
2(1 -1)
2(1 -1)
2(1 -1)
2(1 -1)
2(1 -1)
2(1 -1)
2(1 -1)
2(1 -1)
2(1 -1)
2(1 -1)
2(1 -1)
2(1 -1)
2(1 -1)
2(1 -1)
2(1 -1)
2(1 -1)
2(1 -1)
2(1 -1)
2(1 -1)
2(1 -1)
2(1 -1)
2(1 -1)
2(1 -1)
2(1 -1)
2(1 -1)
2(1 -1)
2(1 -1)
2(1 -1)
2(1 -1)
2(1 -1)
2(1 -1)
2(1 -1)
2(1 -1)
2(1 -1)
2(1 -1)
2(1 -1)
2(1 -1)
2(1 -1)
2(1 -1)
2(1 -1)
2(1 -1)
2(1 -1)
2(1 -1)
2(1 -1)
2(1 -1)
2(1 -1)
2(1 -1)
2(1 -1)
2(1 -1)
2(1 -1)
2(1 -1)
2(1 -1)
2(1 -1)
2(1 -1)
2(1 -1)
2(1 -1)
2(1 -1)
2(1 -1)
2(1 -1)
2(1 -1)
2(1 -1)
2(1 -1)
2(1 -1)
)

// edgeNormals

102
(
2(0 1)
2(2 3)
2(4 5)
2(6 7)
2(8 9)
2(10 11)
2(12 13)
2(14 15)
2(16 17)
2(18 19)
2(20 21)
2(22 23)
2(24 25)
2(26 27)
2(28 29)
2(30 31)
2(32 33)
2(34 35)
2(36 37)
2(38 39)
2(40 41)
2(42 43)
2(44 45)
2(46 47)
2(48 49)
2(50 51)
2(52 53)
2(54 55)
2(56 57)
2(58 59)
2(60 61)
2(62 63)
2(64 65)
2(66 67)
2(68 69)
2(70 71)
2(72 73)
2(74 75)
2(76 77)
2(78 79)
2(80 81)
2(82 83)
2(84 85)
2(86 87)
2(88 89)
2(90 91)
2(92 93)
2(94 95)
2(96 97)
2(98 99)
2(100 101)
2(102 103)
2(104 105)
2(106 107)
2(108 109)
2(110 111)
2(112 113)
2(114 115)
2(116 117)
2(118 119)
2(120 121)
2(122 123)
2(124 125)
2(126 127)
2(128 129)
2(130 131)
2(132 133)
2(134 135)
2(136 137)
2(138 139)
2(140 141)
2(142 143)
2(144 145)
2(146 147)
2(148 149)
2(150 151)
2(152 153)
2(154 155)
2(156 157)
2(158 159)
2(160 161)
2(162 163)
2(164 165)
2(166 167)
2(168 169)
2(170 171)
2(172 173)
2(174 175)
2(176 177)
2(178 179)
2(180 181)
2(182 183)
2(184 185)
2(186 187)
2(188 189)
2(190 191)
2(192 193)
2(194 195)
2(196 197)
2(198 199)
2(200 201)
2(202 203)
)

// featurePointNormals
0()
// featurePointEdges
0()
// regionEdges

102
(
0
1
2
3
4
5
6
7
8
9
10
11
12
13
14
15
16
17
18
19
20
21
22
23
24
25
26
27
28
29
30
31
32
33
34
35
36
37
38
39
40
41
42
43
44
45
46
47
48
49
50
51
52
53
54
55
56
57
58
59
60
61
62
63
64
65
66
67
68
69
70
71
72
73
74
75
76
77
78
79
80
81
82
83
84
85
86
87
88
89
90
91
92
93
94
95
96
97
98
99
100
101
)



// ************************************************************************* //
