/*--------------------------------*- C++ -*----------------------------------*\
  =========                 |
  \\      /  F ield         | OpenFOAM: The Open Source CFD Toolbox
   \\    /   O peration     | Website:  https://openfoam.org
    \\  /    A nd           | Version:  13
     \\/     M anipulation  |
\*---------------------------------------------------------------------------*/
FoamFile
{
    format      ascii;
    class       polyBoundaryMesh;
    location    "constant/polyMesh";
    object      boundary;
}
// * * * * * * * * * * * * * * * * * * * * * * * * * * * * * * * * * * * * * //

10
(
    back
    {
        type            empty;
        inGroups        List<word> 1(empty);
        nFaces          9275;
        startFace       18360;
    }
    front
    {
        type            empty;
        inGroups        List<word> 1(empty);
        nFaces          9275;
        startFace       27635;
    }
    inlet
    {
        type            patch;
        nFaces          0;
        startFace       36910;
    }
    nozzle
    {
        type            wall;
        inGroups        List<word> 1(wall);
        nFaces          264;
        startFace       36910;
    }
    outlet_left
    {
        type            patch;
        nFaces          76;
        startFace       37174;
    }
    outlet_right
    {
        type            patch;
        nFaces          0;
        startFace       37250;
    }
    outlet_topBottom
    {
        type            patch;
        nFaces          84;
        startFace       37250;
    }
    procBoundary2to3
    {
        type            processor;
        inGroups        List<word> 1(processor);
        nFaces          121;
        startFace       37334;
        matchTolerance  0.0001;
        myProcNo        2;
        neighbProcNo    3;
    }
    procBoundary2to5
    {
        type            processor;
        inGroups        List<word> 1(processor);
        nFaces          4;
        startFace       37455;
        matchTolerance  0.0001;
        myProcNo        2;
        neighbProcNo    5;
    }
    procBoundary2to7
    {
        type            processor;
        inGroups        List<word> 1(processor);
        nFaces          52;
        startFace       37459;
        matchTolerance  0.0001;
        myProcNo        2;
        neighbProcNo    7;
    }
)

// ************************************************************************* //
