/*--------------------------------*- C++ -*----------------------------------*\
  =========                 |
  \\      /  F ield         | OpenFOAM: The Open Source CFD Toolbox
   \\    /   O peration     | Website:  https://openfoam.org
    \\  /    A nd           | Version:  13
     \\/     M anipulation  |
\*---------------------------------------------------------------------------*/
FoamFile
{
    format      ascii;
    class       polyBoundaryMesh;
    location    "constant/polyMesh";
    object      boundary;
}
// * * * * * * * * * * * * * * * * * * * * * * * * * * * * * * * * * * * * * //

10
(
    back
    {
        type            empty;
        inGroups        List<word> 1(empty);
        nFaces          9124;
        startFace       18056;
    }
    front
    {
        type            empty;
        inGroups        List<word> 1(empty);
        nFaces          9124;
        startFace       27180;
    }
    inlet
    {
        type            patch;
        nFaces          0;
        startFace       36304;
    }
    nozzle
    {
        type            wall;
        inGroups        List<word> 1(wall);
        nFaces          718;
        startFace       36304;
    }
    outlet_left
    {
        type            patch;
        nFaces          27;
        startFace       37022;
    }
    outlet_right
    {
        type            patch;
        nFaces          0;
        startFace       37049;
    }
    outlet_topBottom
    {
        type            patch;
        nFaces          0;
        startFace       37049;
    }
    procBoundary0to1
    {
        type            processor;
        inGroups        List<word> 1(processor);
        nFaces          77;
        startFace       37049;
        matchTolerance  0.0001;
        myProcNo        0;
        neighbProcNo    1;
    }
    procBoundary0to3
    {
        type            processor;
        inGroups        List<word> 1(processor);
        nFaces          64;
        startFace       37126;
        matchTolerance  0.0001;
        myProcNo        0;
        neighbProcNo    3;
    }
    procBoundary0to4
    {
        type            processor;
        inGroups        List<word> 1(processor);
        nFaces          23;
        startFace       37190;
        matchTolerance  0.0001;
        myProcNo        0;
        neighbProcNo    4;
    }
)

// ************************************************************************* //
