/*--------------------------------*- C++ -*----------------------------------*\
  =========                 |
  \\      /  F ield         | OpenFOAM: The Open Source CFD Toolbox
   \\    /   O peration     | Website:  https://openfoam.org
    \\  /    A nd           | Version:  13
     \\/     M anipulation  |
\*---------------------------------------------------------------------------*/
FoamFile
{
    format      ascii;
    class       polyBoundaryMesh;
    location    "constant/polyMesh";
    object      boundary;
}
// * * * * * * * * * * * * * * * * * * * * * * * * * * * * * * * * * * * * * //

11
(
    back
    {
        type            empty;
        inGroups        List<word> 1(empty);
        nFaces          9120;
        startFace       18107;
    }
    front
    {
        type            empty;
        inGroups        List<word> 1(empty);
        nFaces          9120;
        startFace       27227;
    }
    inlet
    {
        type            patch;
        nFaces          0;
        startFace       36347;
    }
    nozzle
    {
        type            wall;
        inGroups        List<word> 1(wall);
        nFaces          154;
        startFace       36347;
    }
    outlet_left
    {
        type            patch;
        nFaces          0;
        startFace       36501;
    }
    outlet_right
    {
        type            patch;
        nFaces          0;
        startFace       36501;
    }
    outlet_topBottom
    {
        type            patch;
        nFaces          0;
        startFace       36501;
    }
    procBoundary3to0
    {
        type            processor;
        inGroups        List<word> 1(processor);
        nFaces          64;
        startFace       36501;
        matchTolerance  0.0001;
        myProcNo        3;
        neighbProcNo    0;
    }
    procBoundary3to2
    {
        type            processor;
        inGroups        List<word> 1(processor);
        nFaces          121;
        startFace       36565;
        matchTolerance  0.0001;
        myProcNo        3;
        neighbProcNo    2;
    }
    procBoundary3to4
    {
        type            processor;
        inGroups        List<word> 1(processor);
        nFaces          97;
        startFace       36686;
        matchTolerance  0.0001;
        myProcNo        3;
        neighbProcNo    4;
    }
    procBoundary3to5
    {
        type            processor;
        inGroups        List<word> 1(processor);
        nFaces          63;
        startFace       36783;
        matchTolerance  0.0001;
        myProcNo        3;
        neighbProcNo    5;
    }
)

// ************************************************************************* //
