/*--------------------------------*- C++ -*----------------------------------*\
  =========                 |
  \\      /  F ield         | OpenFOAM: The Open Source CFD Toolbox
   \\    /   O peration     | Website:  https://openfoam.org
    \\  /    A nd           | Version:  13
     \\/     M anipulation  |
\*---------------------------------------------------------------------------*/
FoamFile
{
    format      ascii;
    class       polyBoundaryMesh;
    location    "constant/polyMesh";
    object      boundary;
}
// * * * * * * * * * * * * * * * * * * * * * * * * * * * * * * * * * * * * * //

12
(
    back
    {
        type            empty;
        inGroups        List<word> 1(empty);
        nFaces          9129;
        startFace       18181;
    }
    front
    {
        type            empty;
        inGroups        List<word> 1(empty);
        nFaces          9129;
        startFace       27310;
    }
    inlet
    {
        type            patch;
        nFaces          0;
        startFace       36439;
    }
    nozzle
    {
        type            wall;
        inGroups        List<word> 1(wall);
        nFaces          0;
        startFace       36439;
    }
    outlet_left
    {
        type            patch;
        nFaces          0;
        startFace       36439;
    }
    outlet_right
    {
        type            patch;
        nFaces          0;
        startFace       36439;
    }
    outlet_topBottom
    {
        type            patch;
        nFaces          0;
        startFace       36439;
    }
    procBoundary5to2
    {
        type            processor;
        inGroups        List<word> 1(processor);
        nFaces          4;
        startFace       36439;
        matchTolerance  0.0001;
        myProcNo        5;
        neighbProcNo    2;
    }
    procBoundary5to3
    {
        type            processor;
        inGroups        List<word> 1(processor);
        nFaces          63;
        startFace       36443;
        matchTolerance  0.0001;
        myProcNo        5;
        neighbProcNo    3;
    }
    procBoundary5to4
    {
        type            processor;
        inGroups        List<word> 1(processor);
        nFaces          110;
        startFace       36506;
        matchTolerance  0.0001;
        myProcNo        5;
        neighbProcNo    4;
    }
    procBoundary5to6
    {
        type            processor;
        inGroups        List<word> 1(processor);
        nFaces          45;
        startFace       36616;
        matchTolerance  0.0001;
        myProcNo        5;
        neighbProcNo    6;
    }
    procBoundary5to7
    {
        type            processor;
        inGroups        List<word> 1(processor);
        nFaces          72;
        startFace       36661;
        matchTolerance  0.0001;
        myProcNo        5;
        neighbProcNo    7;
    }
)

// ************************************************************************* //
