/*--------------------------------*- C++ -*----------------------------------*\
  =========                 |
  \\      /  F ield         | OpenFOAM: The Open Source CFD Toolbox
   \\    /   O peration     | Website:  https://openfoam.org
    \\  /    A nd           | Version:  13
     \\/     M anipulation  |
\*---------------------------------------------------------------------------*/
FoamFile
{
    format      ascii;
    class       polyBoundaryMesh;
    location    "constant/polyMesh";
    object      boundary;
}
// * * * * * * * * * * * * * * * * * * * * * * * * * * * * * * * * * * * * * //

10
(
    back
    {
        type            empty;
        inGroups        List<word> 1(empty);
        nFaces          9099;
        startFace       17982;
    }
    front
    {
        type            empty;
        inGroups        List<word> 1(empty);
        nFaces          9099;
        startFace       27081;
    }
    inlet
    {
        type            patch;
        nFaces          0;
        startFace       36180;
    }
    nozzle
    {
        type            wall;
        inGroups        List<word> 1(wall);
        nFaces          0;
        startFace       36180;
    }
    outlet_left
    {
        type            patch;
        nFaces          0;
        startFace       36180;
    }
    outlet_right
    {
        type            patch;
        nFaces          60;
        startFace       36180;
    }
    outlet_topBottom
    {
        type            patch;
        nFaces          156;
        startFace       36240;
    }
    procBoundary7to2
    {
        type            processor;
        inGroups        List<word> 1(processor);
        nFaces          52;
        startFace       36396;
        matchTolerance  0.0001;
        myProcNo        7;
        neighbProcNo    2;
    }
    procBoundary7to5
    {
        type            processor;
        inGroups        List<word> 1(processor);
        nFaces          72;
        startFace       36448;
        matchTolerance  0.0001;
        myProcNo        7;
        neighbProcNo    5;
    }
    procBoundary7to6
    {
        type            processor;
        inGroups        List<word> 1(processor);
        nFaces          92;
        startFace       36520;
        matchTolerance  0.0001;
        myProcNo        7;
        neighbProcNo    6;
    }
)

// ************************************************************************* //
